Pcp_File_Version=4
*** BLOCK I: ATMOSPHERIC INFORMATION  **********************************
   MaxAL                    (MaxAL = number of atmospheric data-records)
    365
 DailyVar  SinusVar  lLay  lBCCycles lInterc lDummy  lDummy  lDummy  lDummy  lDummy
       f       f       f       f       f       f       f       f       f       f
 hCritS                 (max. allowed pressure head at the soil surface)
      0
       tAtm        Prec       rSoil       rRoot      hCritA          rB          hB          ht    RootDepth
          1       0.022      0.0101      0.0000       10000      0.0000      0.0000      0.0000
          2       0.529      0.0000      0.0000       10000      0.0000      0.0000      0.0000
          3       1.608      0.0008      0.0000       10000      0.0000      0.0000      0.0000
          4       0.198      0.0002      0.0000       10000      0.0000      0.0000      0.0000
          5       0.110      0.0007      0.0000       10000      0.0000      0.0000      0.0000
          6       0.000      0.0001      0.0000       10000      0.0000      0.0000      0.0000
          7       0.022      0.0000      0.0000       10000      0.0000      0.0000      0.0000
          8       0.022      0.0190      0.0000       10000      0.0000      0.0000      0.0000
          9       0.000      0.0000      0.0000       10000      0.0000      0.0000      0.0000
         10       0.000      0.0156      0.0000       10000      0.0000      0.0000      0.0000
         11       0.000      0.0024      0.0000       10000      0.0000      0.0000      0.0000
         12       0.022      0.0000      0.0000       10000      0.0000      0.0000      0.0000
         13       0.000      0.0000      0.0000       10000      0.0000      0.0000      0.0000
         14       0.000      0.0200      0.0000       10000      0.0000      0.0000      0.0000
         15       0.000      0.0066      0.0000       10000      0.0000      0.0000      0.0000
         16       1.189      0.0006      0.0000       10000      0.0000      0.0000      0.0000
         17       0.264      0.0001      0.0000       10000      0.0000      0.0000      0.0000
         18       0.837      0.0001      0.0000       10000      0.0000      0.0000      0.0000
         19       0.044      0.0002      0.0000       10000      0.0000      0.0000      0.0000
         20       0.044      0.0001      0.0000       10000      0.0000      0.0000      0.0000
         21       0.000      0.0000      0.0000       10000      0.0000      0.0000      0.0000
         22       0.000      0.0000      0.0000       10000      0.0000      0.0000      0.0000
         23       0.044      0.0000      0.0000       10000      0.0000      0.0000      0.0000
         24       0.000      0.0002      0.0000       10000      0.0000      0.0000      0.0000
         25       0.242      0.0000      0.0000       10000      0.0000      0.0000      0.0000
         26       0.198      0.0000      0.0000       10000      0.0000      0.0000      0.0000
         27       0.000      0.0004      0.0000       10000      0.0000      0.0000      0.0000
         28       0.022      0.0000      0.0000       10000      0.0000      0.0000      0.0000
         29       0.308      0.0000      0.0000       10000      0.0000      0.0000      0.0000
         30       0.000      0.0029      0.0000       10000      0.0000      0.0000      0.0000
         31       0.352      0.0000      0.0000       10000      0.0000      0.0000      0.0000
         32       0.022      0.0147      0.0000       10000      0.0000      0.0000      0.0000
         33       0.066      0.0017      0.0000       10000      0.0000      0.0000      0.0000
         34       0.110      0.0000      0.0000       10000      0.0000      0.0000      0.0000
         35       0.044      0.0136      0.0000       10000      0.0000      0.0000      0.0000
         36       0.044      0.0003      0.0000       10000      0.0000      0.0000      0.0000
         37       0.000      0.0221      0.0000       10000      0.0000      0.0000      0.0000
         38       0.000      0.0032      0.0000       10000      0.0000      0.0000      0.0000
         39       0.000      0.0241      0.0000       10000      0.0000      0.0000      0.0000
         40       0.000      0.0155      0.0000       10000      0.0000      0.0000      0.0000
         41       0.000      0.0017      0.0000       10000      0.0000      0.0000      0.0000
         42       0.044      0.0000      0.0000       10000      0.0000      0.0000      0.0000
         43       0.000      0.0005      0.0000       10000      0.0000      0.0000      0.0000
         44       0.022      0.0328      0.0000       10000      0.0000      0.0000      0.0000
         45       0.000      0.0349      0.0000       10000      0.0000      0.0000      0.0000
         46       0.000      0.0042      0.0000       10000      0.0000      0.0000      0.0000
         47       0.022      0.0352      0.0000       10000      0.0000      0.0000      0.0000
         48       0.000      0.0015      0.0000       10000      0.0000      0.0000      0.0000
         49       0.000      0.0000      0.0000       10000      0.0000      0.0000      0.0000
         50       0.000      0.0023      0.0000       10000      0.0000      0.0000      0.0000
         51       0.000      0.0292      0.0000       10000      0.0000      0.0000      0.0000
         52       0.000      0.0160      0.0000       10000      0.0000      0.0000      0.0000
         53       0.000      0.0179      0.0000       10000      0.0000      0.0000      0.0000
         54       0.000      0.0339      0.0000       10000      0.0000      0.0000      0.0000
         55       0.000      0.0215      0.0000       10000      0.0000      0.0000      0.0000
         56       0.000      0.0248      0.0000       10000      0.0000      0.0000      0.0000
         57       0.022      0.0018      0.0000       10000      0.0000      0.0000      0.0000
         58       0.000      0.0166      0.0000       10000      0.0000      0.0000      0.0000
         59       0.000      0.0071      0.0000       10000      0.0000      0.0000      0.0000
         60       0.000      0.0240      0.0000       10000      0.0000      0.0000      0.0000
         61       0.000      0.0249      0.0000       10000      0.0000      0.0000      0.0000
         62       0.000      0.0292      0.0000       10000      0.0000      0.0000      0.0000
         63       0.000      0.0266      0.0000       10000      0.0000      0.0000      0.0000
         64       0.022      0.0148      0.0000       10000      0.0000      0.0000      0.0000
         65       0.066      0.0007      0.0000       10000      0.0000      0.0000      0.0000
         66       1.013      0.0000      0.0000       10000      0.0000      0.0000      0.0000
         67       0.463      0.0088      0.0000       10000      0.0000      0.0000      0.0000
         68       0.022      0.0099      0.0000       10000      0.0000      0.0000      0.0000
         69       0.088      0.0016      0.0000       10000      0.0000      0.0000      0.0000
         70       0.000      0.0303      0.0000       10000      0.0000      0.0000      0.0000
         71       0.683      0.0000      0.0000       10000      0.0000      0.0000      0.0000
         72       0.661      0.0000      0.0000       10000      0.0000      0.0000      0.0000
         73       0.088      0.0000      0.0000       10000      0.0000      0.0000      0.0000
         74       0.022      0.0025      0.0000       10000      0.0000      0.0000      0.0000
         75       0.000      0.0000      0.0000       10000      0.0000      0.0000      0.0000
         76       0.066      0.0001      0.0000       10000      0.0000      0.0000      0.0000
         77       0.044      0.0443      0.0000       10000      0.0000      0.0000      0.0000
         78       0.044      0.0516      0.0000       10000      0.0000      0.0000      0.0000
         79       0.264      0.0001      0.0000       10000      0.0000      0.0000      0.0000
         80       0.066      0.0426      0.0000       10000      0.0000      0.0000      0.0000
         81       0.286      0.0000      0.0000       10000      0.0000      0.0000      0.0000
         82       0.176      0.0000      0.0000       10000      0.0000      0.0000      0.0000
         83       0.000      0.0510      0.0000       10000      0.0000      0.0000      0.0000
         84       0.000      0.0633      0.0000       10000      0.0000      0.0000      0.0000
         85       0.000      0.0010      0.0000       10000      0.0000      0.0000      0.0000
         86       0.000      0.0069      0.0000       10000      0.0000      0.0000      0.0000
         87       0.749      0.0000      0.0000       10000      0.0000      0.0000      0.0000
         88       0.088      0.0015      0.0000       10000      0.0000      0.0000      0.0000
         89       0.022      0.0285      0.0000       10000      0.0000      0.0000      0.0000
         90       0.176      0.0000      0.0000       10000      0.0000      0.0000      0.0000
         91       0.066      0.0000      0.0000       10000      0.0000      0.0000      0.0000
         92       0.000      0.0191      0.0000       10000      0.0000      0.0000      0.0000
         93       0.088      0.0420      0.0000       10000      0.0000      0.0000      0.0000
         94       0.352      0.1183      0.0000       10000      0.0000      0.0000      0.0000
         95       0.286      0.0166      0.0000       10000      0.0000      0.0000      0.0000
         96       0.000      0.1202      0.0000       10000      0.0000      0.0000      0.0000
         97       0.000      0.1830      0.0000       10000      0.0000      0.0000      0.0000
         98       0.000      0.1877      0.0000       10000      0.0000      0.0000      0.0000
         99       0.000      0.1289      0.0000       10000      0.0000      0.0000      0.0000
        100       0.000      0.1579      0.0000       10000      0.0000      0.0000      0.0000
        101       0.286      0.0207      0.0000       10000      0.0000      0.0000      0.0000
        102       0.000      0.0452      0.0000       10000      0.0000      0.0000      0.0000
        103       0.595      0.0051      0.0000       10000      0.0000      0.0000      0.0000
        104       0.859      0.0291      0.0000       10000      0.0000      0.0000      0.0000
        105       0.000      0.0934      0.0000       10000      0.0000      0.0000      0.0000
        106       0.330      0.0000      0.0000       10000      0.0000      0.0000      0.0000
        107       0.000      0.1569      0.0000       10000      0.0000      0.0000      0.0000
        108       0.000      0.2497      0.0000       10000      0.0000      0.0000      0.0000
        109       0.000      0.2579      0.0000       10000      0.0000      0.0000      0.0000
        110       0.000      0.3046      0.0000       10000      0.0000      0.0000      0.0000
        111       0.000      0.2064      0.0000       10000      0.0000      0.0000      0.0000
        112       0.154      0.1856      0.0000       10000      0.0000      0.0000      0.0000
        113       0.066      0.0542      0.0000       10000      0.0000      0.0000      0.0000
        114       0.066      0.0125      0.0000       10000      0.0000      0.0000      0.0000
        115       0.000      0.0254      0.0000       10000      0.0000      0.0000      0.0000
        116       0.264      0.0236      0.0000       10000      0.0000      0.0000      0.0000
        117       0.000      0.0802      0.0000       10000      0.0000      0.0000      0.0000
        118       0.000      0.1320      0.0000       10000      0.0000      0.0000      0.0000
        119       0.000      0.1634      0.0000       10000      0.0000      0.0000      0.0000
        120       0.000      0.1039      0.0000       10000      0.0000      0.0000      0.0000
        121       0.000      0.0965      0.0000       10000      0.0000      0.0000      0.0000
        122       0.000      0.0001      0.0000       10000      0.0000      0.0000      0.0000
        123       0.000      0.1174      0.0000       10000      0.0000      0.0000      0.0000
        124       0.000      0.2104      0.0000       10000      0.0000      0.0000      0.0000
        125       0.000      0.2360      0.0000       10000      0.0000      0.0000      0.0000
        126       0.000      0.2747      0.0000       10000      0.0000      0.0000      0.0000
        127       0.000      0.3040      0.0000       10000      0.0000      0.0000      0.0000
        128       0.000      0.3331      0.0000       10000      0.0000      0.0000      0.0000
        129       0.000      0.2563      0.0000       10000      0.0000      0.0000      0.0000
        130       0.066      0.1594      0.0000       10000      0.0000      0.0000      0.0000
        131       0.000      0.0031      0.0000       10000      0.0000      0.0000      0.0000
        132       0.000      0.0882      0.0000       10000      0.0000      0.0000      0.0000
        133       0.000      0.3742      0.0000       10000      0.0000      0.0000      0.0000
        134       0.000      0.3549      0.0000       10000      0.0000      0.0000      0.0000
        135       0.110      0.0654      0.0000       10000      0.0000      0.0000      0.0000
        136       0.022      0.0118      0.0000       10000      0.0000      0.0000      0.0000
        137       0.000      0.1070      0.0000       10000      0.0000      0.0000      0.0000
        138       0.000      0.0000      0.0000       10000      0.0000      0.0000      0.0000
        139       0.000      0.0484      0.0000       10000      0.0000      0.0000      0.0000
        140       0.000      0.3212      0.0000       10000      0.0000      0.0000      0.0000
        141       0.000      0.3321      0.0000       10000      0.0000      0.0000      0.0000
        142       0.000      0.3000      0.0000       10000      0.0000      0.0000      0.0000
        143       0.000      0.2438      0.0000       10000      0.0000      0.0000      0.0000
        144       0.000      0.1688      0.0000       10000      0.0000      0.0000      0.0000
        145       0.000      0.1550      0.0000       10000      0.0000      0.0000      0.0000
        146       0.000      0.3160      0.0000       10000      0.0000      0.0000      0.0000
        147       0.022      0.1669      0.0000       10000      0.0000      0.0000      0.0000
        148       0.022      0.2837      0.0000       10000      0.0000      0.0000      0.0000
        149       0.000      0.4487      0.0000       10000      0.0000      0.0000      0.0000
        150       0.000      0.1846      0.0000       10000      0.0000      0.0000      0.0000
        151       0.000      0.3693      0.0000       10000      0.0000      0.0000      0.0000
        152       0.000      0.1591      0.0000       10000      0.0000      0.0000      0.0000
        153       0.132      0.0010      0.0000       10000      0.0000      0.0000      0.0000
        154       0.000      0.0217      0.0000       10000      0.0000      0.0000      0.0000
        155       0.000      0.0930      0.0000       10000      0.0000      0.0000      0.0000
        156       0.000      0.1501      0.0000       10000      0.0000      0.0000      0.0000
        157       0.000      0.3952      0.0000       10000      0.0000      0.0000      0.0000
        158       0.000      0.4432      0.0000       10000      0.0000      0.0000      0.0000
        159       0.000      0.4735      0.0000       10000      0.0000      0.0000      0.0000
        160       0.000      0.3836      0.0000       10000      0.0000      0.0000      0.0000
        161       1.828      0.0181      0.0000       10000      0.0000      0.0000      0.0000
        162       0.000      0.0679      0.0000       10000      0.0000      0.0000      0.0000
        163       0.000      0.0172      0.0000       10000      0.0000      0.0000      0.0000
        164       0.000      0.0000      0.0000       10000      0.0000      0.0000      0.0000
        165       0.000      0.2828      0.0000       10000      0.0000      0.0000      0.0000
        166       0.000      0.0080      0.0000       10000      0.0000      0.0000      0.0000
        167       0.000      0.0068      0.0000       10000      0.0000      0.0000      0.0000
        168       0.000      0.0972      0.0000       10000      0.0000      0.0000      0.0000
        169       0.000      0.0264      0.0000       10000      0.0000      0.0000      0.0000
        170       0.000      0.0303      0.0000       10000      0.0000      0.0000      0.0000
        171       0.000      0.0529      0.0000       10000      0.0000      0.0000      0.0000
        172       0.110      0.0879      0.0000       10000      0.0000      0.0000      0.0000
        173       0.374      0.0174      0.0000       10000      0.0000      0.0000      0.0000
        174       0.441      0.0018      0.0000       10000      0.0000      0.0000      0.0000
        175       0.066      0.0000      0.0000       10000      0.0000      0.0000      0.0000
        176       0.022      0.0134      0.0000       10000      0.0000      0.0000      0.0000
        177       0.000      0.0095      0.0000       10000      0.0000      0.0000      0.0000
        178       0.000      0.0878      0.0000       10000      0.0000      0.0000      0.0000
        179       0.000      0.1753      0.0000       10000      0.0000      0.0000      0.0000
        180       0.000      0.4348      0.0000       10000      0.0000      0.0000      0.0000
        181       0.000      0.2134      0.0000       10000      0.0000      0.0000      0.0000
        182       0.000      0.2390      0.0000       10000      0.0000      0.0000      0.0000
        183       0.000      0.2988      0.0000       10000      0.0000      0.0000      0.0000
        184       0.000      0.4277      0.0000       10000      0.0000      0.0000      0.0000
        185       0.000      0.5315      0.0000       10000      0.0000      0.0000      0.0000
        186       0.000      0.1858      0.0000       10000      0.0000      0.0000      0.0000
        187       0.000      0.0310      0.0000       10000      0.0000      0.0000      0.0000
        188       0.000      0.3205      0.0000       10000      0.0000      0.0000      0.0000
        189       0.000      0.0639      0.0000       10000      0.0000      0.0000      0.0000
        190       0.000      0.1348      0.0000       10000      0.0000      0.0000      0.0000
        191       0.044      0.0183      0.0000       10000      0.0000      0.0000      0.0000
        192       0.176      0.0221      0.0000       10000      0.0000      0.0000      0.0000
        193       2.070      0.0007      0.0000       10000      0.0000      0.0000      0.0000
        194       0.000      0.3548      0.0000       10000      0.0000      0.0000      0.0000
        195       0.000      0.3083      0.0000       10000      0.0000      0.0000      0.0000
        196       0.000      0.3023      0.0000       10000      0.0000      0.0000      0.0000
        197       0.000      0.4048      0.0000       10000      0.0000      0.0000      0.0000
        198       0.000      0.3711      0.0000       10000      0.0000      0.0000      0.0000
        199       0.000      0.2980      0.0000       10000      0.0000      0.0000      0.0000
        200       0.000      0.3376      0.0000       10000      0.0000      0.0000      0.0000
        201       0.000      0.2315      0.0000       10000      0.0000      0.0000      0.0000
        202       0.000      0.1951      0.0000       10000      0.0000      0.0000      0.0000
        203       0.000      0.0025      0.0000       10000      0.0000      0.0000      0.0000
        204       0.000      0.4041      0.0000       10000      0.0000      0.0000      0.0000
        205       0.000      0.4950      0.0000       10000      0.0000      0.0000      0.0000
        206       0.000      0.3935      0.0000       10000      0.0000      0.0000      0.0000
        207       0.000      0.5311      0.0000       10000      0.0000      0.0000      0.0000
        208       0.000      0.2292      0.0000       10000      0.0000      0.0000      0.0000
        209       0.000      0.3024      0.0000       10000      0.0000      0.0000      0.0000
        210       0.925      0.2512      0.0000       10000      0.0000      0.0000      0.0000
        211       0.000      0.2741      0.0000       10000      0.0000      0.0000      0.0000
        212       0.000      0.3402      0.0000       10000      0.0000      0.0000      0.0000
        213       0.000      0.1422      0.0000       10000      0.0000      0.0000      0.0000
        214       0.000      0.0896      0.0000       10000      0.0000      0.0000      0.0000
        215       0.000      0.4460      0.0000       10000      0.0000      0.0000      0.0000
        216       0.000      0.1613      0.0000       10000      0.0000      0.0000      0.0000
        217       0.066      0.1538      0.0000       10000      0.0000      0.0000      0.0000
        218       0.000      0.4247      0.0000       10000      0.0000      0.0000      0.0000
        219       0.000      0.4375      0.0000       10000      0.0000      0.0000      0.0000
        220       0.000      0.3119      0.0000       10000      0.0000      0.0000      0.0000
        221       0.176      0.2812      0.0000       10000      0.0000      0.0000      0.0000
        222       0.022      0.1587      0.0000       10000      0.0000      0.0000      0.0000
        223       0.000      0.0918      0.0000       10000      0.0000      0.0000      0.0000
        224       0.000      0.2650      0.0000       10000      0.0000      0.0000      0.0000
        225       0.022      0.1199      0.0000       10000      0.0000      0.0000      0.0000
        226       0.066      0.0333      0.0000       10000      0.0000      0.0000      0.0000
        227       0.000      0.0664      0.0000       10000      0.0000      0.0000      0.0000
        228       0.000      0.3679      0.0000       10000      0.0000      0.0000      0.0000
        229       0.000      0.3628      0.0000       10000      0.0000      0.0000      0.0000
        230       0.000      0.0846      0.0000       10000      0.0000      0.0000      0.0000
        231       0.000      0.3649      0.0000       10000      0.0000      0.0000      0.0000
        232       0.000      0.0011      0.0000       10000      0.0000      0.0000      0.0000
        233       0.000      0.1128      0.0000       10000      0.0000      0.0000      0.0000
        234       0.000      0.3425      0.0000       10000      0.0000      0.0000      0.0000
        235       0.000      0.2520      0.0000       10000      0.0000      0.0000      0.0000
        236       0.000      0.0142      0.0000       10000      0.0000      0.0000      0.0000
        237       0.066      0.0409      0.0000       10000      0.0000      0.0000      0.0000
        238       0.000      0.1416      0.0000       10000      0.0000      0.0000      0.0000
        239       0.000      0.0021      0.0000       10000      0.0000      0.0000      0.0000
        240       0.000      0.0581      0.0000       10000      0.0000      0.0000      0.0000
        241       0.000      0.2751      0.0000       10000      0.0000      0.0000      0.0000
        242       0.176      0.0000      0.0000       10000      0.0000      0.0000      0.0000
        243       0.000      0.0780      0.0000       10000      0.0000      0.0000      0.0000
        244       0.000      0.0861      0.0000       10000      0.0000      0.0000      0.0000
        245       0.044      0.0002      0.0000       10000      0.0000      0.0000      0.0000
        246       0.000      0.1204      0.0000       10000      0.0000      0.0000      0.0000
        247       0.000      0.1693      0.0000       10000      0.0000      0.0000      0.0000
        248       0.000      0.0278      0.0000       10000      0.0000      0.0000      0.0000
        249       0.000      0.1598      0.0000       10000      0.0000      0.0000      0.0000
        250       0.198      0.0198      0.0000       10000      0.0000      0.0000      0.0000
        251       0.000      0.1534      0.0000       10000      0.0000      0.0000      0.0000
        252       0.000      0.0857      0.0000       10000      0.0000      0.0000      0.0000
        253       0.000      0.0193      0.0000       10000      0.0000      0.0000      0.0000
        254       0.000      0.1741      0.0000       10000      0.0000      0.0000      0.0000
        255       0.000      0.1829      0.0000       10000      0.0000      0.0000      0.0000
        256       0.176      0.0000      0.0000       10000      0.0000      0.0000      0.0000
        257       0.022      0.0090      0.0000       10000      0.0000      0.0000      0.0000
        258       0.000      0.0574      0.0000       10000      0.0000      0.0000      0.0000
        259       0.000      0.1146      0.0000       10000      0.0000      0.0000      0.0000
        260       0.000      0.1921      0.0000       10000      0.0000      0.0000      0.0000
        261       0.000      0.2579      0.0000       10000      0.0000      0.0000      0.0000
        262       0.000      0.2069      0.0000       10000      0.0000      0.0000      0.0000
        263       0.000      0.1851      0.0000       10000      0.0000      0.0000      0.0000
        264       0.000      0.0296      0.0000       10000      0.0000      0.0000      0.0000
        265       0.044      0.0130      0.0000       10000      0.0000      0.0000      0.0000
        266       1.586      0.0000      0.0000       10000      0.0000      0.0000      0.0000
        267       0.022      0.0326      0.0000       10000      0.0000      0.0000      0.0000
        268       0.000      0.0887      0.0000       10000      0.0000      0.0000      0.0000
        269       0.000      0.0804      0.0000       10000      0.0000      0.0000      0.0000
        270       0.000      0.0943      0.0000       10000      0.0000      0.0000      0.0000
        271       0.000      0.0227      0.0000       10000      0.0000      0.0000      0.0000
        272       0.000      0.1032      0.0000       10000      0.0000      0.0000      0.0000
        273       0.000      0.1160      0.0000       10000      0.0000      0.0000      0.0000
        274       0.044      0.0055      0.0000       10000      0.0000      0.0000      0.0000
        275       0.198      0.0017      0.0000       10000      0.0000      0.0000      0.0000
        276       0.066      0.0125      0.0000       10000      0.0000      0.0000      0.0000
        277       0.000      0.0000      0.0000       10000      0.0000      0.0000      0.0000
        278       0.000      0.1308      0.0000       10000      0.0000      0.0000      0.0000
        279       0.000      0.1005      0.0000       10000      0.0000      0.0000      0.0000
        280       0.000      0.0002      0.0000       10000      0.0000      0.0000      0.0000
        281       0.022      0.0930      0.0000       10000      0.0000      0.0000      0.0000
        282       0.000      0.0308      0.0000       10000      0.0000      0.0000      0.0000
        283       0.000      0.1444      0.0000       10000      0.0000      0.0000      0.0000
        284       0.000      0.1535      0.0000       10000      0.0000      0.0000      0.0000
        285       0.000      0.1608      0.0000       10000      0.0000      0.0000      0.0000
        286       0.000      0.1672      0.0000       10000      0.0000      0.0000      0.0000
        287       0.000      0.1491      0.0000       10000      0.0000      0.0000      0.0000
        288       0.000      0.1002      0.0000       10000      0.0000      0.0000      0.0000
        289       0.000      0.0608      0.0000       10000      0.0000      0.0000      0.0000
        290       0.000      0.1074      0.0000       10000      0.0000      0.0000      0.0000
        291       0.000      0.0000      0.0000       10000      0.0000      0.0000      0.0000
        292       0.000      0.0457      0.0000       10000      0.0000      0.0000      0.0000
        293       0.000      0.0116      0.0000       10000      0.0000      0.0000      0.0000
        294       0.000      0.0618      0.0000       10000      0.0000      0.0000      0.0000
        295       0.154      0.0005      0.0000       10000      0.0000      0.0000      0.0000
        296       0.374      0.0000      0.0000       10000      0.0000      0.0000      0.0000
        297       0.110      0.0215      0.0000       10000      0.0000      0.0000      0.0000
        298       0.088      0.0000      0.0000       10000      0.0000      0.0000      0.0000
        299       0.022      0.0000      0.0000       10000      0.0000      0.0000      0.0000
        300       0.000      0.0022      0.0000       10000      0.0000      0.0000      0.0000
        301       0.176      0.0000      0.0000       10000      0.0000      0.0000      0.0000
        302       0.044      0.0000      0.0000       10000      0.0000      0.0000      0.0000
        303       0.000      0.0289      0.0000       10000      0.0000      0.0000      0.0000
        304       0.000      0.0508      0.0000       10000      0.0000      0.0000      0.0000
        305       0.000      0.0037      0.0000       10000      0.0000      0.0000      0.0000
        306       0.000      0.0251      0.0000       10000      0.0000      0.0000      0.0000
        307       0.000      0.0000      0.0000       10000      0.0000      0.0000      0.0000